[JUNCTIONS]
;ID Elevation Demand Pattern
J-1 240.94 0.000000 D_J-1
J-10 240.35 0.000593 D_J-10
J-100 242.77 0.000784 D_J-100
J-101 242.77 0.001085 D_J-101
J-102 241.02 0.000522 D_J-102
J-103 241.02 0.001192 D_J-103
J-104 241.02 0.002373 D_J-104
J-105 241.99 0.002643 D_J-105
J-106 241.99 0.002784 D_J-106
J-107 241.99 0.002872 D_J-107
J-108 241.99 0.003064 D_J-108
J-109 241.99 0.002904 D_J-109
J-11 240.25 0.002370 D_J-11
J-110 241.99 0.002378 D_J-110
J-111 241.02 0.002742 D_J-111
J-112 241.02 0.002023 D_J-112
J-113 239.44 0.001898 D_J-113
J-114 240.14 0.001759 D_J-114
J-115 241.02 0.001388 D_J-115
J-116 241.02 0.001222 D_J-116
J-117 241.99 0.000824 D_J-117
J-118 241.99 0.000597 D_J-118
J-119 241.02 0.000501 D_J-119
J-12 241.19 0.000057 D_J-12
J-120 241.99 0.001052 D_J-120
J-121 241.99 0.001074 D_J-121
J-122 241.02 0.001092 D_J-122
J-123 242.17 0.001231 D_J-123
J-124 240.96 0.001315 D_J-124
J-125 243.58 0.001463 D_J-125
J-126 239.55 0.001146 D_J-126
J-127 240.16 0.001369 D_J-127
J-128 240.16 0.001628 D_J-128
J-129 241.99 0.001614 D_J-129
J-13 241.44 0.001809 D_J-13
J-130 241.99 0.001793 D_J-130
J-131 241.99 0.001813 D_J-131
J-132 241.99 0.001780 D_J-132
J-133 241.99 0.001766 D_J-133
J-134 241.99 0.001442 D_J-134
J-135 240.14 0.001272 D_J-135
J-136 240.14 0.001076 D_J-136
J-137 241.44 0.000681 D_J-137
J-138 241.93 0.000762 D_J-138
J-139 241.02 0.000406 D_J-139
J-13a 240.51 0.000407 D_J-13a
J-13b 240.43 0.000960 D_J-13b
J-14 241.58 0.000699 D_J-14
J-140 241.02 0.001010 D_J-140
J-141 240.35 0.001110 D_J-141
J-142 241.99 0.001175 D_J-142
J-143 241.99 0.001096 D_J-143
J-144 241.02 0.001130 D_J-144
J-145 241.02 0.001384 D_J-145
J-146 241.44 0.001389 D_J-146
J-147 240.14 0.001549 D_J-147
J-148 240.14 0.001690 D_J-148
J-149 242.58 0.001695 D_J-149
J-15 242.88 0.001773 D_J-15
J-150 240.41 0.001813 D_J-150
J-151 242.15 0.001776 D_J-151
J-152 242.15 0.001601 D_J-152
J-153 240.74 0.001585 D_J-153
J-154 240.74 0.001434 D_J-154
J-155 241.99 0.001401 D_J-155
J-156 241.99 0.000973 D_J-156
J-157 240.43 0.000617 D_J-157
J-158 240.43 0.000480 D_J-158
J-159 241.99 0.000451 D_J-159
J-16 241.99 0.000406 D_J-16
J-160 241.99 0.000644 D_J-160
J-161 241.99 0.001001 D_J-161
J-162 241.02 0.001134 D_J-162
J-163 241.02 0.001156 D_J-163
J-164 240.16 0.001219 D_J-164
J-165 240.16 0.001272 D_J-165
J-166 242.15 0.001312 D_J-166
J-167 240.43 0.001410 D_J-167
J-168 241.02 0.001485 D_J-168
J-169 240.74 0.001624 D_J-169
J-17 244.24 0.001641 D_J-17
J-170 241.70 0.001671 D_J-170
J-171 242.41 0.001788 D_J-171
J-172 241.58 0.001813 D_J-172
J-173 242.15 0.001779 D_J-173
J-174 242.15 0.001705 D_J-174
J-175 241.99 0.001719 D_J-175
J-176 241.02 0.001594 D_J-176
J-177 241.02 0.001523 D_J-177
J-178 241.99 0.001291 D_J-178
J-179 241.99 0.000813 D_J-179
J-18 241.19 0.000874 D_J-18
J-180 241.99 0.001166 D_J-180
J-181 241.99 0.000931 D_J-181
J-182 240.70 0.000666 D_J-182
J-183 242.19 0.000406 D_J-183
J-184 241.02 0.000933 D_J-184
J-185 241.02 0.000804 D_J-185
J-186 240.16 0.000972 D_J-186
J-187 240.43 0.001462 D_J-187
J-188 240.41 0.001330 D_J-188
J-189 242.18 0.001766 D_J-189
J-19 242.60 0.002266 D_J-19
J-190 242.18 0.002578 D_J-190
J-191 241.99 0.002811 D_J-191
J-192 241.99 0.002837 D_J-192
J-193 240.74 0.003006 D_J-193
J-194 241.02 0.003064 D_J-194
J-195 241.02 0.002918 D_J-195
J-196 241.02 0.002576 D_J-196
J-197 241.02 0.002436 D_J-197
J-198 241.02 0.002295 D_J-198
J-199 240.38 0.002400 D_J-199
J-2 239.95 0.001978 D_J-2
J-20 240.27 0.001367 D_J-20
J-200 241.82 0.000993 D_J-200
J-201 241.02 0.000830 D_J-201
J-202 243.59 0.000323 D_J-202
J-203 244.05 0.000105 D_J-203
J-204 241.30 0.000000 D_J-204
J-205 241.82 0.002923 D_J-205
J-206 240.73 0.002348 D_J-206
J-207 240.73 0.002589 D_J-207
J-208 239.94 0.002448 D_J-208
J-209 239.94 0.002912 D_J-209
J-21 243.58 0.002968 D_J-21
J-210 244.09 0.003088 D_J-210
J-211 244.09 0.002702 D_J-211
J-212 239.82 0.002725 D_J-212
J-213 239.95 0.003330 D_J-213
J-214 240.14 0.003439 D_J-214
J-215 240.14 0.003789 D_J-215
J-216 241.02 0.003766 D_J-216
J-217 241.02 0.003660 D_J-217
J-218 240.74 0.003696 D_J-218
J-219 240.74 0.003222 D_J-219
J-22 241.93 0.003132 D_J-22
J-220 240.14 0.003268 D_J-220
J-221 241.02 0.003094 D_J-221
J-222 241.99 0.002987 D_J-222
J-223 244.19 0.002998 D_J-223
J-224 242.72 0.002891 D_J-224
J-225 239.16 0.002795 D_J-225
J-226 240.74 0.002625 D_J-226
J-227 241.02 0.000318 D_J-227
J-228 241.99 0.001416 D_J-228
J-229 241.99 0.001087 D_J-229
J-23 240.94 0.000760 D_J-23
J-230 240.43 0.001148 D_J-230
J-231 242.89 0.001936 D_J-231
J-232 240.16 0.002219 D_J-232
J-233 241.99 0.002653 D_J-233
J-234 241.09 0.002676 D_J-234
J-235 240.24 0.002677 D_J-235
J-236 242.43 0.003040 D_J-236
J-237 241.02 0.003064 D_J-237
J-238 241.02 0.002643 D_J-238
J-239 241.02 0.002447 D_J-239
J-24 241.99 0.002766 D_J-24
J-240 241.99 0.002461 D_J-240
J-241 241.99 0.002386 D_J-241
J-242 241.99 0.001227 D_J-242
J-243 239.16 0.000000 D_J-243
J-244 239.16 0.000515 D_J-244
J-245 240.74 0.000848 D_J-245
J-246 240.74 0.000208 D_J-246
J-247 242.09 0.000510 D_J-247
J-248 244.13 0.000594 D_J-248
J-249 241.02 0.000000 D_J-249
J-25 241.99 0.000904 D_J-25
J-250 241.44 0.001241 D_J-250
J-251 241.44 0.000847 D_J-251
J-252 241.02 0.000660 D_J-252
J-253 241.99 0.001697 D_J-253
J-254 241.99 0.002319 D_J-254
J-255 241.02 0.002642 D_J-255
J-256 241.02 0.002734 D_J-256
J-257 241.99 0.002738 D_J-257
J-258 241.99 0.002936 D_J-258
J-259 240.14 0.003064 D_J-259
J-26 241.99 0.002570 D_J-26
J-260 241.44 0.001616 D_J-260
J-261 241.44 0.001922 D_J-261
J-262 242.15 0.002311 D_J-262
J-263 240.16 0.002159 D_J-263
J-264 241.99 0.001500 D_J-264
J-265 241.79 0.001097 D_J-265
J-266 241.79 0.000731 D_J-266
J-267 241.44 0.000891 D_J-267
J-268 241.44 0.000655 D_J-268
J-269 242.30 0.000542 D_J-269
J-27 241.99 0.000752 D_J-27
J-270 241.02 0.000334 D_J-270
J-271 241.02 0.000000 D_J-271
J-272 241.02 0.001172 D_J-272
J-273 241.99 0.000920 D_J-273
J-274 240.43 0.000421 D_J-274
J-275 240.43 0.001180 D_J-275
J-276 240.27 0.002076 D_J-276
J-277 241.02 0.002540 D_J-277
J-278 241.02 0.002651 D_J-278
J-279 240.24 0.002841 D_J-279
J-28 241.99 0.003064 D_J-28
J-280 241.44 0.002961 D_J-280
J-281 243.06 0.002861 D_J-281
J-282 241.99 0.002728 D_J-282
J-283 241.99 0.002707 D_J-283
J-284 241.93 0.002555 D_J-284
J-285 241.93 0.002439 D_J-285
J-286 241.02 0.002220 D_J-286
J-287 241.02 0.001474 D_J-287
J-288 239.32 0.000429 D_J-288
J-289 239.32 0.000821 D_J-289
J-29 242.18 0.000717 D_J-29
J-290 239.44 0.000740 D_J-290
J-291 239.98 0.001195 D_J-291
J-292 241.99 0.000000 D_J-292
J-293 241.99 0.000800 D_J-293
J-294 237.61 0.001201 D_J-294
J-295 237.61 0.001109 D_J-295
J-296 243.24 0.001176 D_J-296
J-297 243.18 0.001824 D_J-297
J-298 241.99 0.002299 D_J-298
J-299 240.38 0.002675 D_J-299
J-3 241.79 0.002801 D_J-3
J-30 243.35 0.002812 D_J-30
J-300 241.99 0.002976 D_J-300
J-301 241.99 0.003064 D_J-301
J-302 241.99 0.002992 D_J-302
J-303 241.44 0.002781 D_J-303
J-304 240.43 0.002534 D_J-304
J-305 240.43 0.002303 D_J-305
J-306 241.82 0.002461 D_J-306
J-307 241.82 0.001978 D_J-307
J-308 241.44 0.001160 D_J-308
J-309 241.02 0.000517 D_J-309
J-31 242.99 0.000772 D_J-31
J-310 241.02 0.001073 D_J-310
J-311 241.99 0.001169 D_J-311
J-312 242.43 0.000985 D_J-312
J-313 241.02 0.000317 D_J-313
J-314 241.99 0.000781 D_J-314
J-315 241.99 0.000892 D_J-315
J-316 241.99 0.000962 D_J-316
J-317 241.99 0.000839 D_J-317
J-318 241.30 0.001614 D_J-318
J-319 242.77 0.002336 D_J-319
J-32 242.99 0.002723 D_J-32
J-320 242.77 0.002894 D_J-320
J-321 241.99 0.002881 D_J-321
J-322 241.99 0.003064 D_J-322
J-323 243.58 0.003013 D_J-323
J-325 242.19 0.002848 D_J-325
J-326 241.93 0.002626 D_J-326
J-327 241.99 0.002412 D_J-327
J-328 241.02 0.002160 D_J-328
J-329 241.99 0.002112 D_J-329
J-33 241.99 0.001276 D_J-33
J-330 241.99 0.000657 D_J-330
J-331 240.88 0.000515 D_J-331
J-332 240.88 0.000561 D_J-332
J-333 239.55 0.000317 D_J-333
J-334 239.55 0.000201 D_J-334
J-335 241.99 0.000000 D_J-335
J-336 241.99 0.000120 D_J-336
J-337 242.77 0.000548 D_J-337
J-338 241.27 0.000406 D_J-338
J-339 241.19 0.000428 D_J-339
J-34 241.99 0.000781 D_J-34
J-342 243.58 0.001847 D_J-342
J-343 241.02 0.002475 D_J-343
J-344 241.02 0.002802 D_J-344
J-345 242.15 0.002924 D_J-345
J-346 240.74 0.002940 D_J-346
J-347 240.74 0.003064 D_J-347
J-348 241.44 0.002632 D_J-348
J-35 241.99 0.002319 D_J-35
J-351 241.44 0.002489 D_J-351
J-352 239.82 0.002598 D_J-352
J-353 239.95 0.001872 D_J-353
J-354 241.44 0.001923 D_J-354
J-355 241.99 0.001950 D_J-355
J-356 241.99 0.001002 D_J-356
J-357 241.02 0.000871 D_J-357
J-358 240.43 0.001101 D_J-358
J-359 241.99 0.000752 D_J-359
J-36 241.99 0.000437 D_J-36
J-360 241.99 0.000000 D_J-360
J-361 241.99 0.001080 D_J-361
J-362 241.99 0.001055 D_J-362
J-363 242.99 0.001067 D_J-363
J-364 243.03 0.001252 D_J-364
J-365 241.02 0.001305 D_J-365
J-366 241.02 0.001272 D_J-366
J-367 242.16 0.001179 D_J-367
J-368 241.92 0.001496 D_J-368
J-369 241.44 0.001487 D_J-369
J-37 241.70 0.001500 D_J-37
J-370 241.44 0.001809 D_J-370
J-371 240.94 0.001813 D_J-371
J-372 240.43 0.001409 D_J-372
J-373 240.43 0.001360 D_J-373
J-374 240.14 0.001769 D_J-374
J-375 241.99 0.001617 D_J-375
J-376 241.99 0.001550 D_J-376
J-377 239.16 0.001462 D_J-377
J-378 239.16 0.001073 D_J-378
J-379 241.02 0.000699 D_J-379
J-38 241.65 0.000406 D_J-38
J-380 241.02 0.000504 D_J-380
J-381 241.02 0.001065 D_J-381
J-382 241.02 0.001077 D_J-382
J-383 241.02 0.000923 D_J-383
J-384 241.02 0.001283 D_J-384
J-385 242.14 0.001219 D_J-385
J-386 242.14 0.001146 D_J-386
J-39 241.02 0.001268 D_J-39
J-390 241.44 0.002004 D_J-390
J-391 242.17 0.002532 D_J-391
J-392 241.02 0.002886 D_J-392
J-393 240.74 0.003024 D_J-393
J-394 241.99 0.002998 D_J-394
J-395 241.93 0.003064 D_J-395
J-396 241.93 0.002875 D_J-396
J-397 240.14 0.002579 D_J-397
J-398 240.74 0.002371 D_J-398
J-399 241.99 0.002435 D_J-399
J-4 244.19 0.002247 D_J-4
J-40 241.02 0.001879 D_J-40
J-400 241.99 0.001182 D_J-400
J-401 241.02 0.000975 D_J-401
J-402 242.90 0.000768 D_J-402
J-403 241.02 0.000904 D_J-403
J-404 241.02 0.001244 D_J-404
J-405 241.99 0.000792 D_J-405
J-406 241.99 0.000000 D_J-406
J-407 241.30 0.000520 D_J-407
J-408 241.30 0.000194 D_J-408
J-409 241.99 0.000486 D_J-409
J-41 241.99 0.000402 D_J-41
J-410 242.62 0.000419 D_J-410
J-411 243.66 0.001359 D_J-411
J-412 242.18 0.002254 D_J-412
J-413 242.18 0.002624 D_J-413
J-414 241.99 0.002695 D_J-414
J-415 241.99 0.002699 D_J-415
J-416 241.99 0.003064 D_J-416
J-417 239.95 0.002849 D_J-417
J-418 240.16 0.002436 D_J-418
J-419 240.16 0.002126 D_J-419
J-42 241.99 0.002497 D_J-42
J-420 241.99 0.002635 D_J-420
J-421 239.32 0.002510 D_J-421
J-422 241.99 0.001829 D_J-422
J-423 241.99 0.000734 D_J-423
J-424 241.02 0.000432 D_J-424
J-425 241.82 0.001068 D_J-425
J-426 241.82 0.000759 D_J-426
J-427 241.99 0.000218 D_J-427
J-428 241.02 0.000000 D_J-428
J-429 241.99 0.000070 D_J-429
J-43 241.99 0.000000 D_J-43
J-430 241.99 0.000598 D_J-430
J-431 241.02 0.000334 D_J-431
J-432 241.02 0.000498 D_J-432
J-433 243.35 0.001631 D_J-433
J-434 243.35 0.002312 D_J-434
J-435 241.44 0.002716 D_J-435
J-436 241.44 0.002920 D_J-436
J-437 241.99 0.002904 D_J-437
J-438 241.99 0.003064 D_J-438
J-439 241.02 0.002988 D_J-439
J-44 241.99 0.002925 D_J-44
J-440 241.99 0.002784 D_J-440
J-441 241.44 0.002519 D_J-441
J-443 240.43 0.002135 D_J-443
J-444 241.99 0.002058 D_J-444
J-445 241.99 0.001410 D_J-445
J-446 242.60 0.000651 D_J-446
J-447 242.60 0.000542 D_J-447
J-448 242.15 0.000772 D_J-448
J-449 239.82 0.000306 D_J-449
J-45 242.77 0.000574 D_J-45
J-450 241.99 0.000836 D_J-450
J-451 239.82 0.000914 D_J-451
J-452 239.30 0.001016 D_J-452
J-453 240.16 0.000747 D_J-453
J-454 239.82 0.000879 D_J-454
J-455 239.44 0.001101 D_J-455
J-456 242.60 0.001692 D_J-456
J-457 241.02 0.002300 D_J-457
J-458 241.02 0.002650 D_J-458
J-459 243.31 0.002807 D_J-459
J-46 242.77 0.002804 D_J-46
J-460 242.14 0.002989 D_J-460
J-461 241.99 0.003064 D_J-461
J-462 241.99 0.002653 D_J-462
J-463 244.11 0.002398 D_J-463
J-464 244.11 0.002459 D_J-464
J-465 240.43 0.002055 D_J-465
J-466 241.99 0.002173 D_J-466
J-467 241.99 0.001595 D_J-467
J-468 241.99 0.000829 D_J-468
J-469 241.44 0.000750 D_J-469
J-47 240.96 0.000577 D_J-47
J-470 244.24 0.000000 D_J-470
J-471 241.99 0.000245 D_J-471
J-472 241.02 0.000465 D_J-472
J-473 241.93 0.000331 D_J-473
J-474 241.02 0.000224 D_J-474
J-475 241.02 0.000475 D_J-475
J-476 240.27 0.000693 D_J-476
J-477 241.70 0.000704 D_J-477
J-478 240.24 0.001407 D_J-478
J-479 241.44 0.002320 D_J-479
J-48 240.96 0.002724 D_J-48
J-480 240.43 0.002811 D_J-480
J-481 240.43 0.002845 D_J-481
J-482 242.15 0.003064 D_J-482
J-483 242.15 0.002673 D_J-483
J-484 241.99 0.002549 D_J-484
J-485 241.02 0.002769 D_J-485
J-486 240.16 0.002621 D_J-486
J-487 241.02 0.002310 D_J-487
J-488 241.02 0.002343 D_J-488
J-489 241.99 0.001553 D_J-489
J-49 241.02 0.000309 D_J-49
J-490 241.99 0.000000 D_J-490
J-491 241.99 0.000339 D_J-491
J-492 241.65 0.000360 D_J-492
J-493 240.43 0.000442 D_J-493
J-494 240.43 0.000223 D_J-494
J-495 241.99 0.000148 D_J-495
J-497 240.27 0.000796 D_J-497
J-498 240.94 0.000544 D_J-498
J-499 241.02 0.000597 D_J-499
J-5 241.79 0.000708 D_J-5
J-50 241.02 0.001486 D_J-50
J-501 239.16 0.002373 D_J-501
J-502 242.99 0.002624 D_J-502
J-504 242.16 0.002838 D_J-504
J-505 243.06 0.002875 D_J-505
J-506 243.53 0.003026 D_J-506
J-507 241.99 0.003064 D_J-507
J-508 241.99 0.002630 D_J-508
J-509 241.44 0.002512 D_J-509
J-51 242.05 0.002766 D_J-51
J-510 241.44 0.002407 D_J-510
J-511 242.17 0.002262 D_J-511
J-512 242.17 0.001468 D_J-512
J-513 241.99 0.000647 D_J-513
J-514 242.99 0.000423 D_J-514
J-515 241.52 0.000604 D_J-515
J-516 241.52 0.000178 D_J-516
J-517 240.14 0.000000 D_J-517
J-518 241.99 0.000178 D_J-518
J-52 242.05 0.000233 D_J-52
J-521 242.85 0.000566 D_J-521
J-522 242.17 0.000254 D_J-522
J-523 240.74 0.000396 D_J-523
J-524 241.44 0.000588 D_J-524
J-525 241.02 0.001608 D_J-525
J-526 240.43 0.002392 D_J-526
J-527 239.16 0.002758 D_J-527
J-528 241.02 0.002954 D_J-528
J-529 241.99 0.002909 D_J-529
J-53 241.02 0.003064 D_J-53
J-530 241.99 0.002866 D_J-530
J-531 241.02 0.002741 D_J-531
J-532 241.02 0.002711 D_J-532
J-533 241.02 0.002746 D_J-533
J-534 241.99 0.002558 D_J-534
J-535 239.95 0.002268 D_J-535
J-537 239.82 0.001633 D_J-537
J-538 241.99 0.000656 D_J-538
J-539 241.99 0.000251 D_J-539
J-54 241.02 0.000133 D_J-54
J-540 243.31 0.000000 D_J-540
J-541 241.70 0.000467 D_J-541
J-542 241.70 0.000192 D_J-542
J-543 240.58 0.000688 D_J-543
J-544 240.58 0.000640 D_J-544
J-545 241.99 0.000143 D_J-545
J-546 240.43 0.000000 D_J-546
J-547 241.02 0.000286 D_J-547
J-548 241.02 0.001464 D_J-548
J-549 239.82 0.002306 D_J-549
J-55 240.35 0.002718 D_J-55
J-550 241.99 0.002746 D_J-550
J-551 239.82 0.002733 D_J-551
J-552 239.82 0.003064 D_J-552
J-553 242.89 0.002597 D_J-553
J-554 240.43 0.002458 D_J-554
J-555 240.43 0.002729 D_J-555
J-556 241.93 0.002725 D_J-556
J-557 239.30 0.002527 D_J-557
J-558 239.30 0.002503 D_J-558
J-559 241.02 0.001893 D_J-559
J-56 241.99 0.000937 D_J-56
J-560 241.02 0.000738 D_J-560
J-561 242.15 0.001060 D_J-561
J-562 241.99 0.000405 D_J-562
J-563 241.99 0.000523 D_J-563
J-564 241.99 0.000810 D_J-564
J-565 241.02 0.000000 D_J-565
J-566 241.02 0.000471 D_J-566
J-567 240.43 0.000507 D_J-567
J-569 240.43 0.000548 D_J-569
J-57 241.02 0.000846 D_J-57
J-570 240.43 0.001626 D_J-570
J-571 240.43 0.002282 D_J-571
J-572 241.99 0.002493 D_J-572
J-573 241.99 0.002663 D_J-573
J-574 241.99 0.002787 D_J-574
J-575 241.99 0.002968 D_J-575
J-576 241.99 0.003064 D_J-576
J-577 241.99 0.002960 D_J-577
J-578 240.74 0.002682 D_J-578
J-579 242.16 0.002679 D_J-579
J-58 241.02 0.002458 D_J-58
J-580 241.99 0.002243 D_J-580
J-581 244.41 0.001643 D_J-581
J-582 242.15 0.000894 D_J-582
J-583 241.99 0.000597 D_J-583
J-584 241.99 0.000577 D_J-584
J-585 240.43 0.000098 D_J-585
J-586 241.99 0.000095 D_J-586
J-588 241.99 0.000151 D_J-588
J-589 240.43 0.000000 D_J-589
J-59 241.02 0.000717 D_J-59
J-590 242.18 0.000712 D_J-590
J-591 243.59 0.000812 D_J-591
J-592 242.18 0.000787 D_J-592
J-593 242.90 0.001532 D_J-593
J-594 240.43 0.002357 D_J-594
J-595 240.43 0.002691 D_J-595
J-596 241.99 0.002826 D_J-596
J-597 241.02 0.002901 D_J-597
J-598 241.02 0.003064 D_J-598
J-599 241.02 0.003054 D_J-599
J-6 241.70 0.002935 D_J-6
J-60 241.02 0.002769 D_J-60
J-600 241.44 0.002755 D_J-600
J-601 242.15 0.002326 D_J-601
J-602 243.35 0.002144 D_J-602
J-603 241.99 0.001532 D_J-603
J-604 241.99 0.000895 D_J-604
J-605 242.18 0.000844 D_J-605
J-606 239.44 0.000634 D_J-606
J-607 238.35 0.000229 D_J-607
J-609 240.18 0.000295 D_J-609
J-61 242.77 0.000232 D_J-61
J-611 240.66 0.001150 D_J-611
J-612 240.73 0.001221 D_J-612
J-613 241.93 0.001185 D_J-613
J-614 241.02 0.001263 D_J-614
J-615 241.02 0.001362 D_J-615
J-616 240.66 0.001448 D_J-616
J-617 241.86 0.001444 D_J-617
J-618 241.99 0.001524 D_J-618
J-619 241.99 0.001680 D_J-619
J-62 242.77 0.001655 D_J-62
J-620 241.99 0.001749 D_J-620
J-621 241.93 0.001813 D_J-621
J-622 241.02 0.001769 D_J-622
J-623 241.99 0.001792 D_J-623
J-624 241.93 0.001805 D_J-624
J-625 239.95 0.001637 D_J-625
J-626 239.95 0.001462 D_J-626
J-627 241.02 0.001173 D_J-627
J-628 240.74 0.001151 D_J-628
J-629 242.16 0.000904 D_J-629
J-63 242.18 0.000896 D_J-63
J-630 240.16 0.000406 D_J-630
J-631 241.44 0.000454 D_J-631
J-632 241.02 0.001159 D_J-632
J-633 241.02 0.001530 D_J-633
J-634 240.43 0.000000 D_J-634
J-635 240.43 0.000667 D_J-635
J-636 241.92 0.000744 D_J-636
J-637 240.43 0.000579 D_J-637
J-638 240.43 0.001381 D_J-638
J-639 243.24 0.002297 D_J-639
J-64 242.17 0.002776 D_J-64
J-640 243.94 0.002828 D_J-640
J-641 243.94 0.002850 D_J-641
J-642 241.79 0.003064 D_J-642
J-643 240.16 0.002980 D_J-643
J-644 243.06 0.002466 D_J-644
J-645 241.99 0.002201 D_J-645
J-646 241.02 0.002730 D_J-646
J-647 239.44 0.002704 D_J-647
J-648 239.44 0.002231 D_J-648
J-649 241.02 0.001647 D_J-649
J-65 242.99 0.000894 D_J-65
J-650 241.02 0.000780 D_J-650
J-651 243.77 0.001369 D_J-651
J-652 241.99 0.000992 D_J-652
J-653 241.02 0.001141 D_J-653
J-654 241.99 0.001208 D_J-654
J-655 241.99 0.000000 D_J-655
J-656 241.99 0.000956 D_J-656
J-657 241.99 0.001091 D_J-657
J-658 241.99 0.001072 D_J-658
J-659 241.79 0.000817 D_J-659
J-66 241.99 0.001656 D_J-66
J-660 241.79 0.002313 D_J-660
J-661 241.02 0.002660 D_J-661
J-662 239.16 0.002844 D_J-662
J-663 240.43 0.002840 D_J-663
J-664 241.99 0.002985 D_J-664
J-665 241.99 0.003064 D_J-665
J-666 241.99 0.002990 D_J-666
J-667 237.61 0.002703 D_J-667
J-668 242.18 0.002704 D_J-668
J-669 242.18 0.002565 D_J-669
J-67 241.99 0.002447 D_J-67
J-671 242.18 0.001999 D_J-671
J-672 242.60 0.001466 D_J-672
J-673 242.18 0.000816 D_J-673
J-674 241.99 0.000355 D_J-674
J-675 241.99 0.000185 D_J-675
J-676 243.35 0.000486 D_J-676
J-677 242.62 0.000524 D_J-677
J-678 241.44 0.002768 D_J-678
J-679 242.15 0.002576 D_J-679
J-68 241.02 0.002762 D_J-68
J-680 242.99 0.002854 D_J-680
J-681 240.43 0.003331 D_J-681
J-682 241.30 0.003449 D_J-682
J-683 240.16 0.003335 D_J-683
J-684 240.18 0.003522 D_J-684
J-686 241.70 0.003521 D_J-686
J-687 241.02 0.003420 D_J-687
J-688 241.02 0.003717 D_J-688
J-689 241.82 0.003018 D_J-689
J-69 241.02 0.003063 D_J-69
J-690 240.14 0.003789 D_J-690
J-691 239.55 0.003727 D_J-691
J-692 239.55 0.003269 D_J-692
J-693 240.27 0.003227 D_J-693
J-694 240.27 0.003357 D_J-694
J-695 240.43 0.002859 D_J-695
J-696 241.99 0.002771 D_J-696
J-698 241.02 0.002821 D_J-698
J-699 241.99 0.002348 D_J-699
J-7 244.19 0.002435 D_J-7
J-70 241.70 0.002568 D_J-70
J-700 240.74 0.001137 D_J-700
J-701 241.82 0.001162 D_J-701
J-702 241.79 0.001217 D_J-702
J-703 241.44 0.001286 D_J-703
J-704 241.44 0.001333 D_J-704
J-705 241.02 0.001402 D_J-705
J-706 241.02 0.001341 D_J-706
J-707 240.74 0.001514 D_J-707
J-708 241.99 0.001688 D_J-708
J-709 241.99 0.001698 D_J-709
J-71 241.02 0.001776 D_J-71
J-710 241.99 0.001813 D_J-710
J-711 241.02 0.001783 D_J-711
J-712 242.18 0.001710 D_J-712
J-713 241.99 0.001689 D_J-713
J-714 241.99 0.001559 D_J-714
J-715 241.99 0.001458 D_J-715
J-716 241.99 0.001131 D_J-716
J-717 240.88 0.000997 D_J-717
J-718 241.99 0.000900 D_J-718
J-719 241.99 0.000632 D_J-719
J-72 241.02 0.000595 D_J-72
J-720 241.99 0.000613 D_J-720
J-721 239.16 0.000406 D_J-721
J-723 239.94 0.000494 D_J-723
J-724 241.99 0.000925 D_J-724
J-726 242.43 0.000992 D_J-726
J-727 240.27 0.001143 D_J-727
J-728 240.66 0.001186 D_J-728
J-729 237.61 0.001336 D_J-729
J-73 241.99 0.001378 D_J-73
J-730 240.04 0.001528 D_J-730
J-731 243.24 0.001614 D_J-731
J-732 243.24 0.001544 D_J-732
J-733 240.74 0.001315 D_J-733
J-734 241.99 0.001503 D_J-734
J-735 241.99 0.001813 D_J-735
J-736 241.44 0.001722 D_J-736
J-737 241.44 0.001627 D_J-737
J-738 241.02 0.001233 D_J-738
J-739 241.02 0.001235 D_J-739
J-74 241.99 0.000620 D_J-74
J-740 241.99 0.000406 D_J-740
J-741 242.05 0.000815 D_J-741
J-743 240.73 0.000881 D_J-743
J-744 241.02 0.000508 D_J-744
J-745 241.02 0.000547 D_J-745
J-746 242.18 0.000980 D_J-746
J-747 240.18 0.001160 D_J-747
J-748 242.15 0.001152 D_J-748
J-749 241.02 0.001240 D_J-749
J-75 240.14 0.001285 D_J-75
J-750 240.14 0.001317 D_J-750
J-751 241.27 0.001425 D_J-751
J-753 238.35 0.001386 D_J-753
J-754 239.55 0.001556 D_J-754
J-755 241.93 0.001690 D_J-755
J-756 241.02 0.001665 D_J-756
J-757 241.02 0.001753 D_J-757
J-758 243.24 0.001813 D_J-758
J-759 241.02 0.001777 D_J-759
J-76 240.14 0.001696 D_J-76
J-760 241.82 0.001649 D_J-760
J-761 240.43 0.001533 D_J-761
J-762 241.99 0.001508 D_J-762
J-763 239.16 0.001296 D_J-763
J-764 241.82 0.000939 D_J-764
J-766 240.43 0.000773 D_J-766
J-767 241.99 0.000919 D_J-767
J-768 241.93 0.000816 D_J-768
J-769 239.95 0.000639 D_J-769
J-77 239.55 0.000406 D_J-77
J-770 239.44 0.001048 D_J-770
J-771 240.16 0.000467 D_J-771
J-772 240.16 0.001106 D_J-772
J-773 242.17 0.001279 D_J-773
J-774 241.09 0.000856 D_J-774
J-775 244.68 0.001061 D_J-775
J-777 241.02 0.002039 D_J-777
J-78 241.58 0.002712 D_J-78
J-780 241.99 0.002811 D_J-780
J-781 242.62 0.002849 D_J-781
J-782 242.05 0.003064 D_J-782
J-783 237.61 0.002961 D_J-783
J-784 241.99 0.002882 D_J-784
J-785 241.02 0.002927 D_J-785
J-786 242.18 0.002590 D_J-786
J-787 244.41 0.002160 D_J-787
J-788 241.02 0.002248 D_J-788
J-789 241.02 0.001460 D_J-789
J-79 241.02 0.000969 D_J-79
J-790 240.14 0.001308 D_J-790
J-791 241.44 0.000941 D_J-791
J-792 241.99 0.000394 D_J-792
J-793 241.02 0.000379 D_J-793
J-794 241.70 0.000000 D_J-794
J-795 243.77 0.000279 D_J-795
J-797 242.41 0.000568 D_J-797
J-798 241.99 0.000457 D_J-798
J-799 241.99 0.001147 D_J-799
J-8 243.39 0.001297 D_J-8
J-80 241.99 0.001757 D_J-80
J-801 244.09 0.002370 D_J-801
J-802 241.99 0.002678 D_J-802
J-803 242.41 0.002865 D_J-803
J-805 241.02 0.002892 D_J-805
J-806 241.09 0.003064 D_J-806
J-807 241.02 0.002963 D_J-807
J-808 241.99 0.002756 D_J-808
J-809 241.44 0.002448 D_J-809
J-81 241.99 0.002615 D_J-81
J-810 243.94 0.002477 D_J-810
J-811 242.18 0.002165 D_J-811
J-812 240.14 0.001241 D_J-812
J-813 242.15 0.000852 D_J-813
J-814 241.99 0.001315 D_J-814
J-815 241.99 0.000607 D_J-815
J-816 242.41 0.000196 D_J-816
J-817 241.02 0.000451 D_J-817
J-818 241.02 0.000000 D_J-818
J-819 239.82 0.000234 D_J-819
J-82 240.96 0.000001 D_J-82
J-820 239.55 0.000329 D_J-820
J-821 241.02 0.000874 D_J-821
J-823 242.70 0.000674 D_J-823
J-824 241.99 0.001455 D_J-824
J-825 242.60 0.002388 D_J-825
J-826 241.99 0.002693 D_J-826
J-827 241.99 0.002837 D_J-827
J-828 241.99 0.002910 D_J-828
J-829 239.94 0.003064 D_J-829
J-83 241.99 0.002731 D_J-83
J-830 241.99 0.002369 D_J-830
J-831 241.99 0.002441 D_J-831
J-832 241.99 0.002778 D_J-832
J-833 239.16 0.002459 D_J-833
J-834 244.04 0.001866 D_J-834
J-835 241.99 0.001250 D_J-835
J-836 241.02 0.000298 D_J-836
J-837 242.15 0.000357 D_J-837
J-838 241.02 0.000659 D_J-838
J-839 241.99 0.000000 D_J-839
J-84 241.99 0.000609 D_J-84
J-840 242.18 0.000927 D_J-840
J-841 239.55 0.000000 D_J-841
J-842 242.15 0.000808 D_J-842
J-843 244.09 0.001284 D_J-843
J-844 241.02 0.001275 D_J-844
J-847 240.96 0.001370 D_J-847
J-848 241.99 0.001949 D_J-848
J-85 241.44 0.002453 D_J-85
J-850 241.93 0.002800 D_J-850
J-851 241.02 0.002940 D_J-851
J-852 241.02 0.002939 D_J-852
J-853 241.02 0.003027 D_J-853
J-854 241.99 0.003052 D_J-854
J-855 242.17 0.003064 D_J-855
J-856 240.74 0.002887 D_J-856
J-857 240.04 0.002657 D_J-857
J-858 239.16 0.002205 D_J-858
J-86 241.44 0.002128 D_J-86
J-860 242.26 0.001901 D_J-860
J-861 239.16 0.001505 D_J-861
J-862 241.93 0.001343 D_J-862
J-863 241.99 0.001271 D_J-863
J-864 240.43 0.000844 D_J-864
J-865 241.99 0.000963 D_J-865
J-866 241.99 0.000997 D_J-866
J-867 241.79 0.000000 D_J-867
J-868 241.99 0.000708 D_J-868
J-869 241.99 0.000734 D_J-869
J-87 240.24 0.000746 D_J-87
J-870 241.30 0.000783 D_J-870
J-871 242.18 0.001634 D_J-871
J-872 239.16 0.002382 D_J-872
J-873 242.18 0.002692 D_J-873
J-874 241.82 0.002806 D_J-874
J-876 241.79 0.002848 D_J-876
J-877 241.44 0.003057 D_J-877
J-878 240.43 0.003064 D_J-878
J-879 241.02 0.002869 D_J-879
J-88 240.24 0.002697 D_J-88
J-880 241.19 0.002664 D_J-880
J-883 244.09 0.002307 D_J-883
J-884 241.99 0.002249 D_J-884
J-885 241.44 0.001625 D_J-885
J-886 241.99 0.001083 D_J-886
J-89 241.02 0.000938 D_J-89
J-890 241.99 0.000762 D_J-890
J-891 240.43 0.000303 D_J-891
J-892 241.09 0.000397 D_J-892
J-893 240.43 0.000527 D_J-893
J-894 241.79 0.000000 D_J-894
J-895 240.43 0.000435 D_J-895
J-896 241.99 0.000170 D_J-896
J-897 241.99 0.000709 D_J-897
J-898 240.16 0.000597 D_J-898
J-899 242.15 0.001384 D_J-899
J-9 242.58 0.002435 D_J-9
J-90 241.02 0.002852 D_J-90
J-900 243.17 0.002999 D_J-900
J-901 240.16 0.002971 D_J-901
J-902 241.02 0.003064 D_J-902
J-903 241.02 0.002609 D_J-903
J-904 241.99 0.001851 D_J-904
J-905 240.43 0.002076 D_J-905
J-906 241.44 0.002521 D_J-906
J-907 241.44 0.002102 D_J-907
J-908 241.02 0.002343 D_J-908
J-909 241.44 0.001873 D_J-909
J-91 241.99 0.000808 D_J-91
J-910 241.99 0.000896 D_J-910
J-911 241.99 0.000976 D_J-911
J-912 243.06 0.000469 D_J-912
J-913 241.99 0.000704 D_J-913
J-914 241.99 0.000526 D_J-914
J-915 241.99 0.000000 D_J-915
J-916 241.44 0.000702 D_J-916
J-918 239.55 0.000930 D_J-918
J-919 242.99 0.001293 D_J-919
J-92 241.99 0.001371 D_J-92
J-921 243.06 0.001965 D_J-921
J-923 241.99 0.002366 D_J-923
J-924 242.15 0.002698 D_J-924
J-925 241.99 0.002888 D_J-925
J-926 241.99 0.002899 D_J-926
J-927 241.99 0.003064 D_J-927
J-928 239.16 0.002996 D_J-928
J-93 241.99 0.002554 D_J-93
J-931 240.51 0.002350 D_J-931
J-94 241.99 0.002751 D_J-94
J-95 241.99 0.002459 D_J-95
J-96 240.51 0.002243 D_J-96
J-97 242.05 0.001752 D_J-97
J-98 241.99 0.000944 D_J-98
J-99 241.99 0.000889 D_J-99
I-Pump-1 241.02 0.000892 D_I-Pump-1
I-Pump-10 241.79 0.000205 D_I-Pump-10
I-Pump-11 242.18 0.000353 D_I-Pump-11
O-Pump-12 237.61 0.000571 D_O-Pump-12
I-Pump-13 243.24 0.000359 D_I-Pump-13
I-Pump-2 241.02 0.000448 D_I-Pump-2
I-Pump-3 241.02 0.000711 D_I-Pump-3
O-Pump-4 241.02 0.000924 D_O-Pump-4
I-Pump-5 242.99 0.001047 D_I-Pump-5
O-Pump-6 240.04 0.001734 D_O-Pump-6
O-Pump-7 241.93 0.002315 D_O-Pump-7
I-Pump-8 241.37 0.002582 D_I-Pump-8
I-Pump-9 240.51 0.002743 D_I-Pump-9
I-RV-1 241.70 0.002830 D_I-RV-1
O-RV-2 242.60 0.002993 D_O-RV-2
O-RV-3 240.51 0.003064 D_O-RV-3
I-RV-4 242.18 0.002880 D_I-RV-4
O-RV-5 241.79 0.002440 D_O-RV-5
O-Pump-1 241.02 0.002189 D_O-Pump-1
O-Pump-10 241.79 0.002210 D_O-Pump-10
O-Pump-11 242.18 0.002379 D_O-Pump-11
I-Pump-12 237.61 0.001472 D_I-Pump-12
O-Pump-13 243.24 0.000415 D_O-Pump-13
O-Pump-2 241.02 0.000274 D_O-Pump-2
O-Pump-3 241.02 0.000443 D_O-Pump-3
I-Pump-4 241.02 0.000450 D_I-Pump-4
O-Pump-5 242.99 0.000397 D_O-Pump-5
I-Pump-6 240.04 0.000000 D_I-Pump-6
I-Pump-7 241.93 0.000863 D_I-Pump-7
O-Pump-8 241.37 0.000673 D_O-Pump-8
O-Pump-9 240.51 0.000578 D_O-Pump-9
O-RV-1 241.70 0.000869 D_O-RV-1
I-RV-2 242.60 0.001014 D_I-RV-2
I-RV-3 240.51 0.001684 D_I-RV-3
O-RV-4 242.18 0.002407 D_O-RV-4
I-RV-5 241.79 0.002700 D_I-RV-5
[RESERVOIRS]
;ID Head
R-1 172.29
R-2 320.44
[Tanks]
;ID Elevation  InitLevel  MinLevel  MaxLevel  Diameter  MinVol  VolCurve
T-1 266.78 90.76 0.00 100.76 41.37 54500.10
T-10 256.76 85.75 0.00 95.75 41.76 41166.65
T-11 247.47 59.89 0.00 69.89 42.05 35079.69
T-12 274.17 54.03 0.00 64.03 41.93 35906.35
T-13 243.03 62.42 0.00 72.42 43.21 36867.37
T-2 271.06 60.12 0.00 70.12 42.27 36520.85
T-3 244.35 76.14 0.00 86.14 41.78 44713.31
T-4 254.05 67.62 0.00 77.62 43.02 42827.14
T-5 269.57 56.60 0.00 66.60 42.71 53734.05
T-6 265.50 86.33 0.00 96.33 42.43 39198.60
T-7 273.97 35.43 0.00 45.43 41.72 48431.64
T-8 243.69 68.41 0.00 78.41 42.32 45658.27
T-9 250.62 43.03 0.00 53.03 43.16 52409.15
[COORDINATES]
R-2 63.04 1000.22
T-8 125.35 1000.19
T-10 187.32 1000.19
T-9 249.37 1000.19
T-11 312.30 1000.25
T-2 375.39 1000.23
T-7 437.99 1000.19
T-13 500.00 1000.18
T-5 562.01 1000.19
T-12 624.61 1000.23
T-1 687.70 1000.25
T-3 750.63 1000.19
R-1 812.68 1000.19
T-4 874.65 1000.19
T-6 936.96 1000.22
I-Pump-1 52.13 958.45
O-Pump-1 104.41 958.52
J-15 157.91 958.55
J-1 211.06 958.55
J-766 263.90 958.47
J-364 315.98 958.43
J-741 367.97 958.43
J-107 420.44 958.50
J-17 473.10 958.55
J-10 526.90 958.55
J-14 579.56 958.50
J-19 632.03 958.43
J-13 684.02 958.43
J-878 736.10 958.47
I-Pump-2 788.94 958.55
I-Pump-4 842.09 958.55
J-321 895.59 958.52
I-Pump-3 947.87 958.45
J-172 30.82 916.99
J-22 67.18 916.98
J-553 99.69 916.95
J-348 133.31 917.01
J-782 166.97 916.96
J-223 199.54 916.98
J-106 233.49 917.00
J-470 266.82 916.95
J-21 299.62 916.99
J-571 333.67 917.00
J-276 366.67 916.94
J-55 399.66 917.00
I-RV-2 433.90 916.99
J-540 466.28 916.95
J-620 500.00 917.01
J-746 533.72 916.95
J-371 566.10 916.99
J-363 600.34 917.00
J-433 633.33 916.94
J-858 666.33 917.00
J-280 700.38 916.99
I-RV-3 733.18 916.95
J-644 766.51 917.00
J-652 800.46 916.98
O-Pump-2 833.03 916.96
O-Pump-4 866.69 917.01
O-Pump-3 900.31 916.95
J-322 932.82 916.98
J-96 969.18 916.99
J-23 16.74 875.37
J-248 41.50 875.41
J-468 63.58 875.43
J-514 85.05 875.42
J-834 106.29 875.44
O-Pump-12 127.77 875.45
O-Pump-7 149.01 875.42
J-241 170.02 875.43
J-231 191.70 875.43
J-848 212.63 875.42
J-395 234.06 875.44
J-224 255.34 875.42
J-570 276.51 875.43
J-51 297.93 875.44
J-671 319.19 875.43
J-479 340.27 875.44
J-434 361.83 875.44
J-342 383.01 875.42
J-7 404.12 875.45
J-801 425.72 875.44
J-141 446.70 875.42
O-RV-2 468.16 875.43